8

  C       -1.18131       -0.00168        0.00000
  C        0.01327       -0.00189        0.00000
  C       -2.47414       -0.00360        0.00000
  C        1.30564        0.00011        0.00000
  O       -3.09814       -1.08680        0.00000
  O        1.92970       -1.08299        0.00000
  H        1.81638        0.88414        0.00000
  H       -2.98762        0.87818        0.00000
