42
H22 C15 O5
O -0.425200 -0.611300 -1.523700
O -1.245800 -1.296600 1.175400
O 1.085900 -1.514500 0.985900
O -0.893600 -1.913600 -1.066100
O 3.323800 -1.723000 0.984700
C -0.088200 0.217900 -0.385100
C -1.185500 1.323400 -0.361000
C 1.301600 0.808500 -0.694700
C -0.801000 2.522900 0.549300
C -0.023200 -0.587600 0.927800
C 1.660300 1.962100 0.251700
C -2.588000 0.782400 0.008800
C 0.597400 3.053600 0.211200
C 2.345800 -0.323000 -0.722600
C -1.871300 -1.689400 -0.047600
C -2.916600 -0.637000 -0.471800
C -1.808600 3.675200 0.455300
C 2.316100 -1.202600 0.513300
C 3.764000 0.188400 -0.989800
C -2.547600 -3.035900 0.199000
H -1.273900 1.702800 -1.390900
H 1.272800 1.224400 -1.713600
H -0.789500 2.186600 1.594300
H 0.109900 0.072800 1.789900
H 2.614400 2.414000 -0.041400
H 1.786700 1.603700 1.279600
H -3.351900 1.460200 -0.392900
H -2.712800 0.809200 1.099700
H 0.875500 3.846100 0.916700
H 0.589500 3.511200 -0.786800
H 2.099400 -0.995300 -1.556400
H -3.892800 -0.889000 -0.037400
H -3.049100 -0.644300 -1.560600
H -1.927900 4.014000 -0.579400
H -2.791700 3.380100 0.834200
H -1.477400 4.530400 1.054500
H 4.438900 -0.647500 -1.206900
H 3.783900 0.861500 -1.853100
H 4.178000 0.715300 -0.123600
H -3.277100 -2.975500 1.013800
H -3.045600 -3.402500 -0.704900
H -1.805100 -3.789100 0.488000