33
H16 C15 O2
O 4.703700 1.734100 -0.108300
O -4.672700 1.759700 0.108100
C 0.006900 -1.389900 -0.000400
C 1.248100 -0.564100 -0.028700
C -1.291300 -0.516000 0.029500
C -0.138700 -2.358700 1.233500
C 0.026800 -2.362600 -1.231700
C 1.470400 0.325000 -1.080000
C -1.447100 0.332900 1.079600
C 2.187100 -0.681200 0.996200
C -2.169500 -0.669100 -0.996800
C 2.631600 1.097300 -1.106600
C -2.604200 1.111500 1.106300
C 3.348500 0.091100 0.969700
C -3.326500 0.109600 -0.970200
C 3.570700 0.980500 -0.081700
C -3.543900 0.999900 0.081400
H 0.671000 -3.098400 1.255800
H -0.129700 -1.828700 2.193000
H -1.082800 -2.916500 1.186600
H 0.934700 -2.980200 -1.208700
H -0.821900 -3.057500 -1.228400
H 0.041700 -1.836000 -2.193200
H 0.752300 0.436700 -1.887800
H -0.722000 0.433600 1.879200
H 2.064300 -1.357100 1.835200
H -2.055600 -1.336900 -1.838900
H 2.792600 1.787100 -1.930700
H -2.761000 1.802300 1.930400
H 4.076900 -0.004100 1.770500
H -4.055100 0.019600 -1.771500
H 4.692700 2.291700 -0.905100
H -4.658700 2.317000 0.905200