52
H25 C21 N2 Cl1 O3
Cl -6.102300 3.858200 0.711100
O 5.702000 0.546600 0.138100
O 9.053500 -0.671100 -0.204100
O 8.225900 1.065500 1.015300
N -0.716400 -0.011400 -0.101200
N 2.057300 0.761500 -0.361400
C -0.337700 1.363200 -0.450500
C 0.297100 -0.959200 -0.580500
C 1.043300 1.709200 0.117100
C 1.678500 -0.613700 -0.014100
C -2.032900 -0.340900 -0.643500
C 3.373200 1.090800 0.182900
C -3.063900 0.724000 -0.299600
C -2.500400 -1.733600 -0.247100
C 4.440100 0.180600 -0.404600
C -3.788000 0.599400 0.868500
C -3.244800 1.782400 -1.166700
C -3.331300 -2.427400 -1.103200
C -2.079200 -2.261700 0.956400
C -4.733800 1.575100 1.183200
C -4.190600 2.758300 -0.852000
C -3.759700 -3.704300 -0.740100
C -2.507700 -3.538600 1.319400
C -4.935100 2.654600 0.323100
C -3.347900 -4.259800 0.471100
C 6.743300 -0.283900 -0.357500
C 8.057500 0.136200 0.240000
H -1.005500 2.100600 0.004900
H -0.329600 1.515400 -1.538100
H 0.095800 -1.995100 -0.294600
H 0.347300 -0.944500 -1.678900
H 1.304300 2.724800 -0.205000
H 1.001300 1.715000 1.215000
H 1.683100 -0.764100 1.073900
H 2.362100 -1.344500 -0.455400
H -1.946900 -0.357100 -1.742400
H 3.635100 2.128300 -0.062500
H 3.389600 1.026200 1.279200
H 4.276100 -0.868200 -0.143100
H 4.469000 0.277500 -1.496700
H -3.648900 -0.207500 1.577700
H -2.684700 1.868900 -2.092800
H -3.658500 -2.002600 -2.047400
H -1.448400 -1.718100 1.653100
H -5.303400 1.484500 2.104600
H -4.339100 3.592100 -1.533400
H -4.414700 -4.265600 -1.400100
H -2.192500 -3.969000 2.265500
H -3.682700 -5.253400 0.754600
H 6.807600 -0.183300 -1.446100
H 6.550300 -1.324200 -0.074400
H 9.924000 -0.419000 0.171500