31
H12 C10 N4 O5
O 2.041800 0.503100 0.979000
O 1.206100 -2.259300 -1.177500
O 3.448600 -2.119300 0.411200
O 3.781900 2.609000 0.355700
O -4.599900 1.353900 -0.419000
N -0.245800 0.275000 0.159000
N -1.680900 1.908100 -0.369200
N -1.784600 -1.557900 0.544000
N -4.051000 -0.829200 0.199900
C 1.712800 -0.985900 -0.830900
C 1.071900 -0.412000 0.428500
C 3.180000 -1.015200 -0.451700
C 3.326700 0.264100 0.362300
C 3.679800 1.476100 -0.488800
C -1.491300 -0.276700 0.223000
C -0.412100 1.590300 -0.200700
C -2.348500 0.748500 -0.106000
C -3.767500 0.501900 -0.134700
C -3.068000 -1.774100 0.516100
H 1.557400 -0.311200 -1.681700
H 0.853600 -1.179100 1.181100
H 3.850000 -1.091000 -1.312900
H 4.051000 0.160600 1.178300
H 2.904100 1.686000 -1.231800
H 4.637300 1.329700 -0.998000
H 1.740800 -2.594100 -1.917300
H 4.389100 -2.075600 0.655000
H 0.422900 2.265600 -0.327500
H 4.010200 3.367500 -0.208200
H -3.489800 -2.763700 0.750800
H -5.024000 -1.121300 0.212300