45
H22 C12 O11
O -0.021500 0.200300 -0.101500
O -1.894500 -0.868900 -1.086000
O 2.554900 -0.346600 1.296200
O 2.903100 0.173600 -2.251400
O -1.168700 2.705300 -0.634000
O -3.792100 2.412200 0.552200
O -4.160500 -0.178100 1.738300
O 1.835000 2.335600 0.465800
O 4.106200 1.360800 1.702400
O 3.452100 -2.927100 0.886300
O -2.402800 -3.455200 -0.374700
C 1.127100 -0.403400 -0.705100
C 1.968600 0.719300 -1.325800
C -1.096700 0.315500 -1.031700
C 1.874300 -1.206700 0.373600
C -1.974500 1.539700 -0.766400
C -2.821600 1.364400 0.492500
C -3.561900 0.025800 0.460600
C 2.740400 1.506700 -0.264500
C -2.606800 -1.128800 0.129100
C 3.470400 0.570000 0.700000
C 2.818000 -2.265700 -0.193000
C -3.348500 -2.448800 -0.062900
H 0.807400 -1.114900 -1.479000
H 1.325800 1.411400 -1.881300
H -0.687100 0.455200 -2.039900
H 1.129600 -1.727500 0.989400
H -2.644600 1.702800 -1.619600
H -2.203000 1.456400 1.393800
H -4.368900 0.069300 -0.282300
H -1.877200 -1.269600 0.937700
H 3.469000 2.176600 -0.736700
H 4.260000 0.022900 0.174100
H 3.606200 -1.839700 -0.817000
H 2.274400 -3.003700 -0.791500
H -4.061000 -2.390800 -0.892500
H -3.885300 -2.744900 0.842800
H 3.389000 0.914200 -2.652600
H -0.532600 2.545800 0.084100
H -4.228600 2.360900 1.419100
H -4.863500 0.484300 1.845300
H 2.350100 2.797100 1.149400
H 4.851400 0.840000 2.047000
H 2.759900 -3.351700 1.421200
H -1.928300 -3.175500 -1.176300