42
H18 C16 S1 N2 O5
S -2.025600 -1.293000 -1.170100
O -2.023800 1.956600 1.805100
O -5.978500 -0.660100 1.375300
O -5.562900 1.384700 0.457600
O 1.518200 1.361300 -1.803500
O 3.640500 -0.058900 -0.940200
N -3.014400 0.798500 0.002900
N 0.154800 0.580000 -0.091300
C -2.176600 0.530700 -1.169700
C -3.719300 -1.471900 -0.415600
C -3.813400 -0.276100 0.556400
C -1.059200 1.316700 -0.470200
C -2.064500 1.503700 0.683700
C -4.748100 -1.449700 -1.554200
C -3.792800 -2.804800 0.331300
C -5.190700 0.264500 0.773600
C 1.351700 0.669900 -0.802300
C 2.444300 -0.187500 -0.201500
C 4.821800 -0.209700 -0.252900
C 4.865900 -1.043200 0.856100
C 5.952000 0.474400 -0.678500
C 6.064200 -1.195400 1.553700
C 7.150300 0.322000 0.019200
C 7.206300 -0.512900 1.135200
H -2.574400 0.975600 -2.086400
H -3.390500 -0.519600 1.540300
H -0.824500 2.272700 -0.954800
H -4.553200 -2.243400 -2.285400
H -5.762800 -1.615300 -1.175500
H -4.752700 -0.494200 -2.090700
H -3.631700 -3.653300 -0.344300
H -3.043600 -2.866700 1.129200
H -4.775100 -2.945100 0.794900
H 0.133500 -0.033500 0.720300
H -6.887900 -0.324500 1.525900
H 2.561100 0.152800 0.836100
H 2.113300 -1.232200 -0.218200
H 4.006600 -1.612700 1.196200
H 5.911500 1.125500 -1.546900
H 6.110100 -1.850300 2.418900
H 8.039700 0.853200 -0.306800
H 8.139700 -0.632600 1.677400