57
H29 C26 N1 O1
O 3.414900 1.512800 -0.805100
N 6.641400 0.400600 0.587200
C -1.984500 0.190300 -0.088900
C -2.378500 -1.123700 0.008600
C -0.583900 0.534300 -0.274800
C -3.811300 -1.572700 0.255000
C -3.028000 1.265200 -0.004000
C -1.416400 -2.252000 -0.064400
C -0.058800 0.650000 -1.561900
C 0.235000 0.747400 0.834200
C -4.137600 -1.711400 1.737200
C 2.094500 1.190100 -0.629900
C 1.284900 0.978800 -1.740000
C 1.578900 1.076600 0.656000
C -3.628200 1.683700 -1.165200
C -3.333700 1.780300 1.230800
C -0.839400 -2.713500 1.101200
C -1.128300 -2.804700 -1.295800
C 5.672800 0.821000 -0.424800
C 4.317700 1.091900 0.209200
C -4.598000 2.683100 -1.086200
C -4.303800 2.779500 1.309900
C 0.064700 -3.773600 1.032400
C -0.224200 -3.864900 -1.364500
C -4.936000 3.230900 0.151400
C 0.372100 -4.349300 -0.200400
C 7.938100 0.124700 -0.029900
C 6.775600 1.424600 1.622600
H -3.997300 -2.532300 -0.245100
H -4.525900 -0.880300 -0.202800
H -0.682500 0.486400 -2.437600
H -0.159600 0.666700 1.844400
H -3.570400 -2.527000 2.196300
H -5.200400 -1.943700 1.862400
H -3.928100 -0.796500 2.296700
H 1.690200 1.067200 -2.744000
H 2.173200 1.263400 1.545000
H -3.372600 1.261700 -2.132500
H -2.843100 1.439900 2.137600
H 6.011900 1.714600 -0.966400
H 5.551900 0.035400 -1.182000
H -1.064700 -2.270000 2.066900
H -1.588100 -2.435700 -2.208300
H 4.359000 1.903300 0.941800
H 3.982100 0.167800 0.699000
H -5.090600 3.034400 -1.988200
H -4.565900 3.207000 2.273300
H 0.530700 -4.149600 1.938500
H 0.015300 -4.312900 -2.324400
H -5.691100 4.009100 0.212800
H 1.076400 -5.174300 -0.253900
H 7.844300 -0.660200 -0.788700
H 8.368500 1.013900 -0.504700
H 8.649500 -0.246700 0.716200
H 7.615900 1.186700 2.286700
H 6.956700 2.422500 1.206900
H 5.902000 1.457300 2.281000