37

O         -0.02551        3.69119        3.43246
O          0.76390       -2.22476        3.78337
O         -4.19139       -3.23839        0.86983
O         -2.34894        2.35428       -2.47085
O         -1.97923        2.83746        2.78631
O         -1.33324       -1.47452        3.83678
O         -4.40383       -1.02485        0.96714
O         -3.29855        2.27288       -0.45516
N         -0.34758        0.53752        1.92002
N         -2.09753       -0.38613       -0.30740
C          0.16139       -0.31511        0.80863
C         -0.64210       -0.17523       -0.50561
C         -0.08771        1.97433        1.65443
C          0.28770        0.13066        3.20011
C         -2.43217       -1.81720       -0.10875
C         -2.86945        0.16980       -1.44352
C         -0.76349        2.86174        2.66547
C         -0.15127       -1.24502        3.62818
C         -3.74867       -1.99160        0.60459
C         -2.85336        1.67166       -1.42140
H          1.23343       -0.09323        0.60604
H          0.13196       -1.38078        1.10145
H         -0.44653        0.83563       -0.91387
H         -0.24407       -0.88464       -1.26576
H         -0.50178        2.27964        0.67492
H          1.00801        2.17349        1.64398
H         -0.00851        0.81499        4.02285
H          1.39737        0.16574        3.10997
H         -1.68833       -2.32487        0.53253
H         -2.45111       -2.35375       -1.08377
H         -3.93627       -0.13548       -1.38479
H         -2.46537       -0.20873       -2.40959
H         -0.43848        4.27078        4.08826
H          0.50521       -3.11761        4.05281
H         -5.02324       -3.38879        1.34100
H         -2.32765        3.32167       -2.48062
Zn        -2.20781        0.30571        2.12803
